/*--------------------------------*- C++ -*----------------------------------*\
  =========                 |
  \\      /  F ield         | OpenFOAM: The Open Source CFD Toolbox
   \\    /   O peration     | Website:  https://openfoam.org
    \\  /    A nd           | Version:  7
     \\/     M anipulation  |
\*---------------------------------------------------------------------------*/
FoamFile
{
    version     2.0;
    format      ascii;
    class       dictionary;
    object      blockMeshDict;
}
// * * * * * * * * * * * * * * * * * * * * * * * * * * * * * * * * * * * * * //

convertToMeters 1;

vertices
(   (1.25 -10.75 0)   //0
    (-1.25 -10.75 0)  //1
    (-2.25 -1.75  0)  //2
    (2.25 -1.75 0)    //3
    (2.27  -1.7 0)    //4
    (-2.27  -1.7 0)   //5 
    (-3 0 0)          //6
    (3 0 0)           //7
    (3 2 0)           //8
    (-3 2 0)          //9
    (-3 2.05 0)       //10
    (3 2.05 0)        //11
    (3 15 0)  	      //12
    (-3 15 0)         //13
    (1.25 -10.75 0.01)   //14
    (-1.25 -10.75 0.01)  //15
    (-2.25 -1.75 0.01)   //16
    (2.25 -1.75 0.01)    //17
    (2.27  -1.7 0.01)    //18
    (-2.27  -1.7 0.01)   //19 
    (-3 0 0.01)          //20
    (3 0 0.01)           //21
    (-3 2 0.01)          //22
    (3 2 0.01)           //23
    (3 2.05 0.01)        //24
    (-3 2.05 0.01)       //25
    (-3 15 0.01)         //26
    (3  15 0.01)  	 //27
);

blocks
(
    hex (15 14 0 1 16 17 3 2) porosity1 (60 100 1) simpleGrading (1 1 1)
    hex (16 17 3 2 19 18 4 5) porosity2 (60 100 1) simpleGrading (1 1 1)
    hex (19 18 4 5 20 21 7 6) porosity3  (60 100 1) simpleGrading (1 1 1)
    hex (20 21 7 6 22 23 8 9) porosity4  (60 100 1) simpleGrading (1 1 1)
    hex (22 23 8 9 25 24 11 10) porosity5  (60 100 1) simpleGrading (1 1 1)
    hex (25 24 11 10 26 27 12 13) porosity6  (60 100 1) simpleGrading (1 1 1)   
);

edges
(
);

boundary
(
    outlet
    {
        type patch;
        faces
        (
            (26 27 12 13)
        );
    }
    inlet2
    {
       type patch;
       faces 
       (
           (8 11 24 23)
       );
    }
    inlet1
    {
       type patch;
       faces 
       (
           (22 25 10 9)
       );
    }
 
    outletSolid
    {
       type patch;
        faces
        (
            (15 1 0 14)
        );
    }

    coolingOutlet1
    {
       type patch;
        faces
        (
            (20 22 9 6)
        );
    }

    coolingOutlet2
    {
       type patch;
        faces
        (
            (21 23 8 7)
        );
    }

    fixedWalls
    {
        type wall;
        faces
        (
            (15 16 2 1)
            (16 19 5 2)
            (19 20 6 5)
            (25 26 13 10)
            (11 12 27 24)
            (4 7 21 18)
            (3 4 18 17)
            (0 3 17 14)
        );
    }
    frontAndBack
    {
        type empty; 
        faces
        (
            (15 14 17 16)
            (16 17 18 19)
            (19 18 21 20)
            (20 21 23 22)
            (22 23 24 25)
            (25 24 27 26)
            (1 2 3 0)
            (2 5 4 3)
            (5 6 7 4)
            (6 9 8 7)
            (9 10 11 8)
            (10 13 12 11)            
        );
    }
);

mergePatchPairs
(
);

// ************************************************************************* //
