/*--------------------------------*- C++ -*----------------------------------*\
  =========                 |
  \\      /  F ield         | OpenFOAM: The Open Source CFD Toolbox
   \\    /   O peration     | Website:  https://openfoam.org
    \\  /    A nd           | Version:  7
     \\/     M anipulation  |
\*---------------------------------------------------------------------------*/
FoamFile
{
    version     2.0;
    format      ascii;
    class       volScalarField;
    location    "0";
    object      CO;
}
// * * * * * * * * * * * * * * * * * * * * * * * * * * * * * * * * * * * * * //

dimensions      [0 0 0 0 0 0 0];

internalField   uniform 0;

boundaryField
{
    frontAndBack
    {
        type            empty;
    }
    fixedWalls
    {
        type          zeroGradient;
     }
    outletSolid
    {
     type               zeroGradient;
    }

    inlet1
    {
        type            fixedValue;
       value            uniform 0.35;
    }
    inlet2
    {
        type            fixedValue;
       value            uniform 0.35;
    }
    outlet
      {
        type            fixedValue;
       value            uniform 0.03;
 
    }
    coolingOutlet1
    {
        type               zeroGradient;
    }
    coolingOutlet2
    {
        type               zeroGradient;
    }
}


// ************************************************************************* //
