/*--------------------------------*- C++ -*----------------------------------*\
  =========                 |
  \\      /  F ield         | OpenFOAM: The Open Source CFD Toolbox
   \\    /   O peration     | Website:  https://openfoam.org
    \\  /    A nd           | Version:  7
     \\/     M anipulation  |
\*---------------------------------------------------------------------------*/
FoamFile
{
    version     2.0;
    format      ascii;
    class       volScalarField;
    location    "0";
    object      Fe;
}
// * * * * * * * * * * * * * * * * * * * * * * * * * * * * * * * * * * * * * //

dimensions      [0 0 0 0 0 0 0];

internalField   uniform 0;

boundaryField
{
       frontAndBack
    {
        type            empty;
    }
    fixedWalls
    {
        type          zeroGradient;
     }
    outletSolid
    {
        type            inletOutlet;
        inletValue      uniform 0.0;
        value           uniform 0.0;
    }

    inlet1
    {
        type          zeroGradient;
    }
    inlet2
    {
      type          zeroGradient;
    }
    outlet
      {
         type            fixedValue;
         value            uniform 0.02;
    }
    coolingOutlet1
    {
        type               zeroGradient;
    }
    coolingOutlet2
    {
        type               zeroGradient;
    }
 
    }
}


// ************************************************************************* //
