/*--------------------------------*- C++ -*----------------------------------*\
  =========                 |
  \\      /  F ield         | OpenFOAM: The Open Source CFD Toolbox
   \\    /   O peration     | Website:  https://openfoam.org
    \\  /    A nd           | Version:  7
     \\/     M anipulation  |
\*---------------------------------------------------------------------------*/
FoamFile
{
    version     2.0;
    format      ascii;
    class       volVectorField;
    object      U;
}
// * * * * * * * * * * * * * * * * * * * * * * * * * * * * * * * * * * * * * //

dimensions      [0 1 -1 0 0 0 0];

internalField   uniform (0 0 0);

boundaryField
{
    frontAndBack
    {
        type            empty;
    }
    fixedWalls
    {
        type            noSlip;
      
    }
    outletSolid
    {
        type              inletOutlet;
        value           uniform (0 0 0);
        inletValue      uniform (0 0 0);
    }
   /* porosity1
    {
        type            slip;
        value           uniform (0 0 0);
    }
    porosity2
    {
        type            slip;
        value           uniform (0 0 0);
    }*/
    inlet1
    {
        type            flowRateInletVelocity;
        volumetricFlowRate  constant 0.001;
    }
    inlet2
    {
        type            flowRateInletVelocity;
        volumetricFlowRate  constant 0.001;
    }
    outlet
    {
        type            inletOutlet;
        value           uniform (0 0 0);
        inletValue      uniform (0 0 0);
    }
}

// ************************************************************************* //
